71

B          2.51881        5.98665       -0.02002
B         -5.21307       -2.83042        0.02831
B          1.18769        3.74392       -0.00971
B         -6.49931       -0.61916        0.02624
B         -1.38251       -0.71632        0.01057
B         -2.60408        5.93722       -0.00391
B         -2.70307       -2.92293        0.02076
B         -0.03118        5.97390       -0.01205
B          3.71459        3.75402       -0.01756
B         -3.88443       -0.69775        0.01830
B         -1.42220        3.74789       -0.00160
B         -5.19558        1.57788        0.01614
B         -2.67017        1.52119        0.00841
B         -3.93639        3.78387        0.00616
B          2.39466        1.48340       -0.00721
B         -0.18038       -2.93237        0.01297
B          4.98298        1.52462       -0.01530
B          6.22780       -0.67680       -0.01302
B          1.15151       -0.71124        0.00270
B          2.46386       -2.86097        0.00462
B          5.00740       -2.93371       -0.00300
B          3.73104       -0.66854       -0.00536
N          3.70444        5.27680       -0.02174
N         -3.89347       -3.62174        0.02639
N          1.17243        5.26700       -0.01385
N         -5.20900       -1.43796        0.02447
N         -0.11858        2.98170       -0.00356
N         -6.48643        0.76655        0.02240
N         -1.35022        0.78385        0.00632
N         -3.93197        5.16568        0.00236
N         -2.70835       -1.41677        0.01662
N         -1.39469        5.25956       -0.00583
N          2.38117        3.01919       -0.01141
N         -1.36491       -3.64137        0.01860
N          4.91719        3.05595       -0.01934
N         -3.86737        0.83243        0.01404
N         -2.62347        3.04533        0.00408
N         -5.23027        2.96883        0.01244
N          1.22308        0.78657       -0.00167
N          1.15726       -3.66145        0.01087
N          3.70114        0.72271       -0.00913
N         -0.19254       -1.42066        0.00882
N          6.19079        0.85454       -0.01716
N          3.79185       -3.60982        0.00261
N          5.05098       -1.40494       -0.00738
N          2.44381       -1.47954        0.00085
B         -3.87666       -5.15553        0.03057
B         -1.35141       -5.14730        0.02273
B          1.17754       -5.04504        0.01465
B          3.72488       -5.13178        0.00705
N         -2.68810       -5.86991        0.02887
N         -0.14428       -5.82423        0.02088
N          2.50905       -5.78970        0.01261
H          2.55638        7.16978       -0.02341
H         -6.23999       -3.42017        0.03313
H         -7.54251       -1.17851        0.03103
H         -2.62666        7.12012       -0.00708
H         -0.01105        7.15892       -0.01537
H          7.27432       -1.22875       -0.01471
H          6.02407       -3.54271       -0.00444
H         -4.90146       -5.74601        0.03538
H          4.72357       -5.76736        0.00574
H         -4.82103        5.68523        0.00371
H          4.59763        5.78974       -0.02593
H          5.80115        3.58477       -0.02353
H         -6.13641        3.45852        0.01392
H         -7.38605        1.26818        0.02383
H          7.07501        1.38233       -0.02134
H         -2.71287       -6.89953        0.03179
H         -0.13021       -6.85396        0.02370
H          2.50001       -6.81948        0.01550
